matlab/sample_topology/branch_meta_info.txt
branch_id,isolated,current,power,r,x,b1,rateA,rateB,rateC,ratio,angle,status,angmin,angmax
1,1,0,0,0,0,0,0,0,0,0,0,0,0,0
2,1,0,0,0,0,0,0,0,0,0,0,0,0,0
3,0,0,0,0.0625,0.132,0.0258,0,0,0,0,0,1,-360,360
4,0,12.9999999999999,12.9999999999999,0.043,0.148,0.0348,0,0,0,0,0,1,-360,360
5,0,43.5,-43.5,0.043,0.148,0.0348,0,0,0,0,0,1,-360,360
6,0,0,0,0.0339,0.173,0.047,0,0,0,0,0,1,-360,360
7,0,118.5,-118.5,0.0339,0.173,0.047,0,0,0,0,0,1,-360,360
8,0,122.961278103548,122.961278103548,0.0369,0.1679,0.044,0,0,0,0,0,1,-360,360
9,0,31.228475494357,-31.228475494357,0.0258,0.0848,0.0218,0,0,0,0,0,1,-360,360
10,0,15.1878374893321,15.1878374893321,0.0258,0.0848,0.0218,0,0,0,0,0,1,-360,360
11,0,0,0,0.0258,0.0848,0.0218,0,0,0,0,0,1,-360,360
12,0,0,0,0.0258,0.0848,0.0218,0,0,0,0,0,1,-360,360
13,0,15.5298235946948,-15.5298235946948,0.0269,0.0869,0.023,0,0,0,0,0,1,-360,360
14,0,52.7453635794382,-52.7453635794382,0.0269,0.0869,0.023,0,0,0,0,0,1,-360,360
15,0,189.149608147314,189.149608147314,0.0112,0.0366,0.038,0,0,0,0,0,0,-360,360
16,0,90.4707686953174,90.4707686953174,0.0112,0.0366,0.038,0,0,0,0,0,0,-360,360
17,0,104.579623157368,104.579623157368,0.0112,0.0366,0.038,0,0,0,0,0,0,-360,360
18,0,0.999999999999979,-0.999999999999979,0.0625,0.132,0.0258,0,0,0,0,0,1,-360,360
19,1,0,0,0,0,0,0,0,0,0,0,0,0,0
20,0,17.1236273190878,17.1236273190878,0.043,0.148,0.0348,0,0,0,0,0,1,-360,360
21,0,0,0,0.02,0.102,0.0276,0,0,0,0,0,0,-360,360
22,0,58.5387218964524,-58.5387218964524,0.0099,0.0505,0.0548,0,0,0,0,0,1,-360,360
23,0,55.1222092614077,-55.1222092614077,0.0648,0.295,0.0772,0,0,0,0,0,0,-360,360
24,0,0,0,0.0481,0.158,0.0406,0,0,0,0,0,0,-360,360
25,0,12.0718174087223,-12.0718174087223,0.0132,0.0434,0.011,0,0,0,0,0,1,-360,360
26,0,47.4707686953174,-47.4707686953174,0.0132,0.0434,0.011,0,0,0,0,0,1,-360,360
27,0,62.5796231573682,-62.5796231573682,0.0132,0.0434,0.011,0,0,0,0,0,1,-360,360
28,0,71.4730850282161,-71.4730850282161,0.0178,0.091,0.0988,0,0,0,0,0,1,-360,360
29,0,3.29999999999999,3.29999999999999,0,0.555,0,0,0,0,0.97,0,1,-360,360
30,1,0,0,0,0,0,0,0,0,0,0,0,0,0
31,1,0,0,0,0,0,0,0,0,0,0,0,0,0
32,1,0,0,0,0,0,0,0,0,0,0,0,0,0
33,1,0,0,0,0,0,0,0,0,0,0,0,0,0
34,1,0,0,0,0,0,0,0,0,0,0,0,0,0
35,1,0,0,0,0,0,0,0,0,0,0,0,0,0
36,0,4.82240220644232,4.82240220644232,0.0302,0.0641,0.0124,0,0,0,0,0,0,-360,360
37,0,9.84063800502462,-9.84063800502462,0.0302,0.0641,0.0124,0,0,0,0,0,0,-360,360
38,0,9.84063800502451,-9.84063800502451,0.0277,0.1262,0.0328,0,0,0,0,0,1,-360,360
39,0,19.1406380050246,-19.1406380050246,0.0223,0.0732,0.0188,0,0,0,0,0,0,-360,360
40,0,23.7406380050246,-23.7406380050246,0.0178,0.058,0.0604,0,0,0,0,0,1,-360,360
41,0,58.5387218964521,58.5387218964521,0.0099,0.0505,0.0548,0,0,0,0,0,1,-360,360
42,0,3.54063800502442,3.54063800502442,0.0139,0.0712,0.0194,0,0,0,0,0,1,-360,360
43,0,0.0593619949755486,-0.0593619949755486,0.0397,0.179,0.0476,0,0,0,0,0,1,-360,360
44,0,5.85936199497554,-5.85936199497554,0.0171,0.0547,0.0148,0,0,0,0,0,1,-360,360
45,0,3.80000000000003,3.80000000000003,0.461,0.685,0,0,0,0,0,0,1,-360,360
46,0,11.2593619949753,11.2593619949753,0,1.23,0,0,0,0,1,0,1,-360,360
47,0,11.2593619949754,-11.2593619949754,0,1.23,0,0,0,0,1,0,1,-360,360
48,0,17.2593619949753,-17.2593619949753,0,0.0473,0,0,0,0,1.043,0,1,-360,360
49,0,24.6950991887017,-24.6950991887017,0.165,0.254,0,0,0,0,0,0,1,-360,360
50,0,31.7715245056434,-31.7715245056434,0.0618,0.0954,0,0,0,0,0,0,1,-360,360
51,0,7.07642531694148,7.07642531694148,0.0618,0.0954,0,0,0,0,0,0,1,-360,360
52,0,7.43573719372614,7.43573719372614,0.165,0.254,0,0,0,0,0,0,1,-360,360
53,1,0,0,0,0,0,0,0,0,0,0,0,0,0
54,0,6.01280911755145,6.01280911755145,0.0481,0.158,0.0406,0,0,0,0,0,0,-360,360
55,0,5.01579504513414,5.01579504513414,0.326,0.497,0,0,0,0,0,0,1,-360,360
56,0,7.17502837178058,-7.17502837178058,0.326,0.497,0,0,0,0,0,0,1,-360,360
57,0,29.9311595396603,-29.9311595396603,0.0418,0.0587,0,0,0,0,0,0,1,-360,360
58,0,41.9311595396603,41.9311595396603,0.0454,0.206,0.0546,0,0,0,0,0,1,-360,360
59,0,45.4432614335212,45.4432614335212,0.0178,0.091,0.0988,0,0,0,0,0,1,-360,360
60,0,45.4432614335212,45.4432614335212,0.043,0.0537,0.0016,0,0,0,0,0,1,-360,360
61,0,15.7432614335214,15.7432614335214,0.029,0.0366,0,0,0,0,0,0,1,-360,360
62,0,0,0,0.0651,0.1009,0.002,0,0,0,0,0,1,-360,360
63,0,20.1062662329494,20.1062662329494,0.0239,0.0379,0,0,0,0,0,0,1,-360,360
64,0,0.893733767050597,-0.893733767050597,0.03,0.0466,0,0,0,0,0,0,1,-360,360
65,0,18.8937337670508,18.8937337670508,0.0648,0.295,0.0772,0,0,0,0,0,0,-360,360
66,0,38.203369765411,38.203369765411,0.0269,0.0869,0.023,0,0,0,0,0,1,-360,360
67,0,17.7980838914277,17.7980838914277,0.018,0.0813,0.0216,0,0,0,0,0,1,-360,360
68,0,12.8980838914276,12.8980838914276,0.207,0.352,0,0,0,0,0,0,1,-360,360
69,0,7.10191610857238,-7.10191610857238,0,0.412,0,0,0,0,0,0,1,-360,360
70,0,11.2019161085724,-11.2019161085724,0.0289,0.0585,0.002,0,0,0,0,0,1,-360,360
71,0,9.17502837178064,9.17502837178064,0.0481,0.158,0.0406,0,0,0,0,0,0,-360,360
72,0,41.9311595396602,-41.9311595396602,0,0.953,0,0,0,0,0.975,0,1,-360,360
73,0,7.43573719372619,7.43573719372619,0.135,0.202,0,0,0,0,0,0,1,-360,360
74,0,1.87204244419799,-1.87204244419799,0,0.0735,0,0,0,0,0.9,0,1,-360,360
75,0,2.08420495486588,2.08420495486588,0,0.0735,0,0,0,0,0.9,0,1,-360,360
76,0,7.0764253169417,7.0764253169417,0,0.0648,0,0,0,0,0.967,0,1,-360,360
77,0,0.376425316941686,0.376425316941686,0.023,0.068,0.0032,0,0,0,0,0,1,-360,360
78,0,0.0971035324616176,-0.0971035324616176,0.0418,0.0587,0,0,0,0,0,0,1,-360,360
79,0,15.7432614335212,-15.7432614335212,0.0418,0.0587,0,0,0,0,0,0,1,-360,360
80,0,18.0019161085723,18.0019161085723,0.0258,0.0848,0.0218,0,0,0,0,0,1,-360,360
